-- Copyright (C) 2023 NORCE

----------------------------------------------------------------------------
RUNSPEC
----------------------------------------------------------------------------
DIMENS 
83 1 58 /

EQLDIMS
/

TABDIMS
7 1* 100 /

WATER
GAS
CO2STORE
DISGASW
VAPWAT
DIFFUSE
THERMAL

METRIC

START
1 'JAN' 2025 /

WELLDIMS
2 58 2 2 /

--UNIFIN
--UNIFOUT
----------------------------------------------------------------------------
GRID
----------------------------------------------------------------------------
INIT
INCLUDE
'../GRID.INC' /

INCLUDE
'../TRUE_PERMX.INC' /

COPY 
PERMX PERMY /
PERMX PERMZ /
/

MULTIPLY
PERMZ 0.1 /
/

INCLUDE
'../PORO.INC' /

INCLUDE
'../THCONR.INC' /

BCCON 
1 1 83 1 1 1 1 Z-/
2 1 83 1 1 58 58 Z/
/

INCLUDE
'../DISPERC.INC' /
----------------------------------------------------------------------------
EDIT
----------------------------------------------------------------------------
INCLUDE
'../PVBOUNDARIES.INC' /
----------------------------------------------------------------------------
PROPS
----------------------------------------------------------------------------
INCLUDE
'../TABLES.INC' /

DIFFAWAT
8.64e-05 8.64e-05 /

DIFFAGAS
0.001728 0.001728 /

SPECROCK
40.0 0.85
70.0 0.85 /
40.0 0.85
70.0 0.85 /
40.0 0.85
70.0 0.85 /
40.0 0.85
70.0 0.85 /
40.0 0.85
70.0 0.85 /
40.0 0.85
70.0 0.85 /
40.0 0.85
70.0 0.85 /
----------------------------------------------------------------------------
REGIONS
----------------------------------------------------------------------------
INCLUDE
'../SATNUM.INC' /
INCLUDE
'../FIPNUM.INC' /
----------------------------------------------------------------------------
SOLUTION
---------------------------------------------------------------------------
EQUIL
900.0 300.0 0 0 0 0 1 1 0 /

RPTRST
'BASIC=2' DEN PCGW/

RTEMPVD
0   40.0
1200.0 70.0 /
----------------------------------------------------------------------------
SUMMARY
----------------------------------------------------------------------------
PERFORMA
FGIP
FGIR
FGIT
RGCDI
/
RGCDM
/
RGIP
/
RWCD
/
WBHP
/
WGIR
/
WGIT
/
BWPR
46 1 41 /
53 1 2 /
/
----------------------------------------------------------------------------
SCHEDULE
----------------------------------------------------------------------------
RPTRST
'BASIC=2' DEN RESIDUAL PCGW/

BCPROP
1 THERMAL /
2 THERMAL /
/

WELSPECS
'INJ0' 'G1' 23 1 1* 'GAS' 0.15/
'INJ1' 'G1' 53 1 1* 'GAS' 0.15/
/
COMPDAT
'INJ0' 23 1 49 49 'OPEN' 2* 0.3 /
'INJ1' 53 1 26 26 'OPEN' 2* 0.3 /
/

TUNING
1e-2 365.0 1e-10 2* 1e-12/
/
/
WCONINJE
'INJ0' 'GAS' SHUT
'RATE' 0.000000E+00  1* 400/
'INJ1' 'GAS' SHUT
'RATE' 0.000000E+00  1* 400/
/
WTEMP
'INJ0' 10.0 /
'INJ1' 10.0 /
/
TSTEP
1*365000.0
/
TUNING
1e-2 365.0 1e-10 2* 1e-12/
/
/
WCONINJE
'INJ0' 'GAS' OPEN
'RATE' 1.618471E+03  1* 400/
'INJ1' 'GAS' OPEN
'RATE' 1.618471E+03  1* 400/
/
WTEMP
'INJ0' 10.0 /
'INJ1' 10.0 /
/
TSTEP
5*1825.0
/
